
  ACD/LABS10282514262D

 10 10  0  0  0  0  0  0  0  0  2 V2000
   22.1062   -7.7868    0.0000 C   0  0  0  0  0  0  0  0  0  0  0  0
   22.1062   -9.1168    0.0000 C   0  0  0  0  0  0  0  0  0  0  0  0
   20.9544   -7.1218    0.0000 As  0  0  0  0  0  0  0  0  0  0  0  0
   20.9544   -9.7818    0.0000 C   0  0  0  0  0  0  0  0  0  0  0  0
   19.8026   -7.7868    0.0000 C   0  0  0  0  0  0  0  0  0  0  0  0
   19.8026   -9.1168    0.0000 C   0  0  0  0  0  0  0  0  0  0  0  0
   23.2580   -7.1218    0.0000 As  0  0  0  0  0  0  0  0  0  0  0  0
   22.5930   -5.9699    0.0000 O   0  0  0  0  0  0  0  0  0  0  0  0
   23.9230   -8.2736    0.0000 O   0  0  0  0  0  0  0  0  0  0  0  0
   24.4098   -6.4568    0.0000 O   0  5  0  0  0  0  0  0  0  0  0  0
  1  2  1  0  0  0  0
  1  3  2  0  0  0  0
  2  4  2  0  0  0  0
  3  5  1  0  0  0  0
  4  6  1  0  0  0  0
  5  6  2  0  0  0  0
  1  7  1  0  0  0  0
  7  8  1  0  0  0  0
  7  9  2  0  0  0  0
  7 10  1  0  0  0  0
M  CHG  1  10  -1
M  END
$$$$

  ACD/LABS10282514262D

  1  0  0  0  0  0  0  0  0  0  2 V2000
   27.9781   -6.2975    0.0000 Cr  0  0  0  0  0  0  0  0  0  0  0  0
M  CHG  1   1   4
M  END
$$$$

  ACD/LABS10282514263D

  6  5  0  0  0  0  0  0  0  0  2 V2000
   12.2148   -5.0173   -1.0856 P   0  0  0  0  0  0  0  0  0  0  0  0
   13.2912   -5.6754   -0.3697 O   0  0  0  0  0  0  0  0  0  0  0  0
   12.8432   -3.8092   -1.9989 O   0  5  0  0  0  0  0  0  0  0  0  0
   11.4490   -6.0937   -2.0570 O   0  5  0  0  0  0  0  0  0  0  0  0
   11.1486   -4.4059    0.0000 O   0  0  0  0  0  0  0  0  0  0  0  0
   10.1841   -4.7119   -0.0106 H   0  0  0  0  0  0  0  0  0  0  0  0
  1  2  2  0  0  0  0
  1  3  1  0  0  0  0
  1  4  1  0  0  0  0
  1  5  1  0  0  0  0
  6  5  1  0  0  0  0
M  CHG  2   3  -1   4  -1
M  END
$$$$
